*KEYWORD
*TITLE

$	Created with ANSYS Workbench v15.0
$
$	Units: m, kg, s, N, K
$
*DATABASE_FORMAT
$   1IFORM  2IBINARY
         0
$
$
$$$$$$$$$$$$$$$$$$$$$$$$$$$$$$$$$$$$$$$$$$$$$$$$$$$$$$$$$$$$$$$$$$$$$$$$$$$$$$$$
$                               NODE DEFINITIONS                               $
$$$$$$$$$$$$$$$$$$$$$$$$$$$$$$$$$$$$$$$$$$$$$$$$$$$$$$$$$$$$$$$$$$$$$$$$$$$$$$$$
$
*NODE
$   1NID              2X              3Y              4Z     5TC     6RC
       1         0.00625         0.19375         0.04375
       2         0.00625         0.19375          0.0375
       3         0.00625         0.19375         0.03125
       4         0.00625         0.19375           0.025
       5         0.00625         0.19375         0.01875
       6         0.00625         0.19375          0.0125
       7         0.00625         0.19375         0.00625
       8         0.00625          0.1875         0.04375
       9         0.00625          0.1875          0.0375
      10         0.00625          0.1875         0.03125
      11         0.00625          0.1875           0.025
      12         0.00625          0.1875         0.01875
      13         0.00625          0.1875          0.0125
      14         0.00625          0.1875         0.00625
      15         0.00625         0.18125         0.04375
      16         0.00625         0.18125          0.0375
      17         0.00625         0.18125         0.03125
      18         0.00625         0.18125           0.025
      19         0.00625         0.18125         0.01875
      20         0.00625         0.18125          0.0125
$ ... 7405 like lines cut
$
$
$$$$$$$$$$$$$$$$$$$$$$$$$$$$$$$$$$$$$$$$$$$$$$$$$$$$$$$$$$$$$$$$$$$$$$$$$$$$$$$$
$                             ELEMENT DEFINITIONS                              $
$$$$$$$$$$$$$$$$$$$$$$$$$$$$$$$$$$$$$$$$$$$$$$$$$$$$$$$$$$$$$$$$$$$$$$$$$$$$$$$$
$
*ELEMENT_SOLID
$   1EID    2PID      N1      N2      N3      N4      N5      N6      N7      N8
       1       1       1    6730    6915    7178    5704    6913    6914    7395
       2       1       1    7178    6915    6730       2    7209    6916    6731
       3       1       2    7209    6916    6731       3    7240    6917    6732
       4       1       3    7240    6917    6732       4    7271    6918    6733
       5       1       4    7271    6918    6733       5    7302    6919    6734
       6       1       5    7302    6919    6734       6    7333    6920    6735
       7       1       6    7333    6920    6735       7    7364    6921    6736
       8       1       7    7364    6921    6736    5705    6418    6480    6481
       9       1       1     218    6737    6730    5704    5673    6912    6913
      10       1       1    6730    6737     218       2    6731    6738     219
      11       1       2    6731    6738     219       3    6732    6739     220
      12       1       3    6732    6739     220       4    6733    6740     221
      13       1       4    6733    6740     221       5    6734    6741     222
      14       1       5    6734    6741     222       6    6735    6742     223
      15       1       6    6735    6742     223       7    6736    6743     224
      16       1       7    6736    6743     224    5705    6481    6482    5736
      17       1     218     435    6744    6737    5673    5642    6911    6912
      18       1     218    6737    6744     435     219    6738    6745     436
      19       1     219    6738    6745     436     220    6739    6746     437
      20       1     220    6739    6746     437     221    6740    6747     438
$ ... 6124 like lines cut
$
$
$$$$$$$$$$$$$$$$$$$$$$$$$$$$$$$$$$$$$$$$$$$$$$$$$$$$$$$$$$$$$$$$$$$$$$$$$$$$$$$$
$                             SECTION DEFINITIONS                              $
$$$$$$$$$$$$$$$$$$$$$$$$$$$$$$$$$$$$$$$$$$$$$$$$$$$$$$$$$$$$$$$$$$$$$$$$$$$$$$$$
$
*SECTION_SOLID
$   1SECID   2ELFORM      3AET
         1         1          
$
$
$$$$$$$$$$$$$$$$$$$$$$$$$$$$$$$$$$$$$$$$$$$$$$$$$$$$$$$$$$$$$$$$$$$$$$$$$$$$$$$$
$                             MATERIAL DEFINITIONS                             $
$$$$$$$$$$$$$$$$$$$$$$$$$$$$$$$$$$$$$$$$$$$$$$$$$$$$$$$$$$$$$$$$$$$$$$$$$$$$$$$$
$
*MAT_ELASTIC
$     1MID       2RO        3E       4PR       5DA       6DB        7K
         1      7850    2e+011       0.3                              
$
$
$$$$$$$$$$$$$$$$$$$$$$$$$$$$$$$$$$$$$$$$$$$$$$$$$$$$$$$$$$$$$$$$$$$$$$$$$$$$$$$$
$                              PARTS DEFINITIONS                               $
$$$$$$$$$$$$$$$$$$$$$$$$$$$$$$$$$$$$$$$$$$$$$$$$$$$$$$$$$$$$$$$$$$$$$$$$$$$$$$$$
$
*PART
$  HEADING
Solid
$     1PID    2SECID      3MID    4EOSID     5HGID     6GRAV   7ADPORT     8TMID
         1         1         1         0         0                              
$
$
$$$$$$$$$$$$$$$$$$$$$$$$$$$$$$$$$$$$$$$$$$$$$$$$$$$$$$$$$$$$$$$$$$$$$$$$$$$$$$$$
$                               LOAD DEFINITIONS                               $
$$$$$$$$$$$$$$$$$$$$$$$$$$$$$$$$$$$$$$$$$$$$$$$$$$$$$$$$$$$$$$$$$$$$$$$$$$$$$$$$
$
*DEFINE_CURVE
$    1LCID     2SIDR      3SFA      4SFO     5OFFA     6OFFO   7DATTYP
         1                                                            
$                 1A                  2O
                   0              1e+008
                  10              1e+008
                 100              1e+008
*DEFINE_CURVE
$    1LCID     2SIDR      3SFA      4SFO     5OFFA     6OFFO   7DATTYP
         2                                                            
$                 1A                  2O
                   0                   0
                  10                   0
                 100                   0
*DEFINE_CURVE
$    1LCID     2SIDR      3SFA      4SFO     5OFFA     6OFFO   7DATTYP
         3                                                            
$                 1A                  2O
                   0                   0
                  10                   0
                 100                   0
*DEFINE_CURVE
$    1LCID     2SIDR      3SFA      4SFO     5OFFA     6OFFO   7DATTYP
         4                                                            
$                 1A                  2O
                   0                   0
                  10                   0
                 100                   0
*DEFINE_CURVE
$    1LCID     2SIDR      3SFA      4SFO     5OFFA     6OFFO   7DATTYP
         5                                                            
$                 1A                  2O
                   0                   1
                  10                   1
                 100                   1
*DEFINE_CURVE
$    1LCID     2SIDR      3SFA      4SFO     5OFFA     6OFFO   7DATTYP
         6                                                            
$                 1A                  2O
                   0                   1
                  10                   1
                 100                   1
*DEFINE_CURVE
$    1LCID     2SIDR      3SFA      4SFO     5OFFA     6OFFO   7DATTYP
         7                                                            
$                 1A                  2O
                   0                   1
                  10                   1
                 100                   1
*DEFINE_CURVE
$    1LCID     2SIDR      3SFA      4SFO     5OFFA     6OFFO   7DATTYP
         8                                                            
$                 1A                  2O
                   0                   2
                  10                   2
                 100                   2
*DEFINE_CURVE
$    1LCID     2SIDR      3SFA      4SFO     5OFFA     6OFFO   7DATTYP
         9                                                            
$                 1A                  2O
                   0                   2
                  10                   2
                 100                   2
*DEFINE_CURVE
$    1LCID     2SIDR      3SFA      4SFO     5OFFA     6OFFO   7DATTYP
        10                                                            
$                 1A                  2O
                   0                   2
                  10                   2
                 100                   2
$
$
$$$$$$$$$$$$$$$$$$$$$$$$$$$$$$$$$$$$$$$$$$$$$$$$$$$$$$$$$$$$$$$$$$$$$$$$$$$$$$$$
$                                CONTROL OPTIONS                               $
$$$$$$$$$$$$$$$$$$$$$$$$$$$$$$$$$$$$$$$$$$$$$$$$$$$$$$$$$$$$$$$$$$$$$$$$$$$$$$$$
$
*CONTROL_TERMINATION
$  1ENDTIM   2ENDCYC    3DTMIN   4ENDENG   5ENDMAS
        10     10000      0.01        10         0
*CONTROL_TIMESTEP
$  1DTINIT   2TSSFAC     3ISDO   4TSLIMT    5DT2MS     6LCTM    7ERODE    8MS1ST
       0.1       0.9         0         0         0         1         1         0
*CONTROL_HOURGLASS
$     1IHQ       2QH
         1       0.1
*CONTROL_BULK_VISCOSITY
$      1Q1       2Q2     3TYPE
       1.5      0.06        -2
*CONTROL_SOLID
$   1ESORT   2FMATRX  3NIPTETS   4SWLOCL
         1   
*DAMPING_GLOBAL
$    1LCID   2VALDMP      3STX      4STY      5STZ      6SRX      7SRY      8SRZ
         0         0      
*CONTROL_ENERGY
$    1HGEN     2RWEN   3SLNTEN    4RYLEN
         2         1         2         2
*CONTROL_ACCURACY
$     1OSU      2INN   3PIDOSU
         1         4 
$
$
$$$$$$$$$$$$$$$$$$$$$$$$$$$$$$$$$$$$$$$$$$$$$$$$$$$$$$$$$$$$$$$$$$$$$$$$$$$$$$$$
$                                 TIME HISTORY                                 $
$$$$$$$$$$$$$$$$$$$$$$$$$$$$$$$$$$$$$$$$$$$$$$$$$$$$$$$$$$$$$$$$$$$$$$$$$$$$$$$$
$
*DATABASE_GLSTAT
$      1DT   2BINARY     3LCUR    4IOOPT    5DTHFF    6BINHF
         1
*DATABASE_MATSUM
$      1DT   2BINARY     3LCUR    4IOOPT    5DTHFF    6BINHF
         1
*DATABASE_NODOUT
$      1DT   2BINARY     3LCUR    4IOOPT    5DTHFF    6BINHF
         1
*DATABASE_ELOUT
$      1DT   2BINARY     3LCUR    4IOOPT    5DTHFF    6BINHF
         1
*DATABASE_BINARY_D3PLOT
$      1DT     2LCDT     3BEAM    4NPLTC
         1
*DATABASE_BINARY_RUNRSF
$      1DT       2NR
      5000
$
$
$$$$$$$$$$$$$$$$$$$$$$$$$$$$$$$$$$$$$$$$$$$$$$$$$$$$$$$$$$$$$$$$$$$$$$$$$$$$$$$$
$                                  LIST SETS                                   $
$$$$$$$$$$$$$$$$$$$$$$$$$$$$$$$$$$$$$$$$$$$$$$$$$$$$$$$$$$$$$$$$$$$$$$$$$$$$$$$$
$
*SET_NODE_LIST
$     1SID      2DA1      3DA2      4DA3      5DA4
         1                                        
$    1NID1     2NID2     3NID3     4NID4     5NID5     6NID6     7NID7     8NID8
      4992      4993      4994      4995      4996      4997      4998      4999
      5002      5003      5004      5005      5006      5007      5000      5001
      5008      5009      5010      5011      5012      5013      5014      5015
      5016      5017      5018      5019      5020      5021      5022      5023
      5024      5025      5026      5027      5028      5029      5030      5031
      5032      5033      5034      5035      5036      5037      5038      5039
      5040      5041      5042      5043      5044      5045      5046      5047
      5048      5049      5050      5051      5052      5053      5054      5055
      5056      5057      5058      5059      5060      5061      5062      5063
      5064      5065      5066      5067      5068      5069      5070      5071
      5072      5073      5074      5075      5076      5077      5078      5079
      5080      5081      5082      5083      5084      5085      5086      5087
      5092      5093      5094      5095      5088      5089      5090      5091
      5096      5097      5098      5099      5100      5101      5102      5103
      5104      5105      5106      5107      5108      5109      5110      5111
      5112      5113      5114      5115      5116      5117      5118      5119
      5120      5121      5122      5123      5124      5125      5126      5127
      5128      5129      5130      5131      5132      5133      5134      5135
      5136      5137      5138      5139      5140      5141      5142      5143
      5144      5145      5146      5147      5148      5149      5150      5151
$ ... 230 like lines cut
*SET_NODE_LIST
$     1SID      2DA1      3DA2      4DA3      5DA4
         2                                        
$    1NID1     2NID2     3NID3     4NID4     5NID5     6NID6     7NID7     8NID8
      6418      6419      6420      6421      6422      6423      6424      6425
      6428      6429      6430      6431      6432      6433      6426      6427
      6434      6435      6436      6437      6438      6439      6440      6441
      6442      6443      6444      6445      6446      6447      6448      6480
      6505      6714      6715      6716      6717      6718      6719      6720
      6721      6914      6915      6916      6917      6918      6919      6920
      6921      7178      7179      7180      7181      7182      7183      7184
      7185      7186      7187      7188      7189      7190      7191      7192
      7193      7194      7195      7196      7197      7198      7199      7200
      7201      7202      7203      7204      7205      7206      7207      7208
      7209      7210      7211      7212      7213      7214      7215      7216
      7217      7218      7219      7220      7221      7222      7223      7224
      7229      7230      7231      7232      7225      7226      7227      7228
      7233      7234      7235      7236      7237      7238      7239      7240
      7241      7242      7243      7244      7245      7246      7247      7248
      7249      7250      7251      7252      7253      7254      7255      7256
      7257      7258      7259      7260      7261      7262      7263      7264
      7265      7266      7267      7268      7269      7270      7271      7272
      7273      7274      7275      7276      7277      7278      7279      7280
      7281      7282      7283      7284      7285      7286      7287      7288
$ ... 18 like lines cut
*SET_NODE_LIST
$     1SID      2DA1      3DA2      4DA3      5DA4
         3                                        
$    1NID1     2NID2     3NID3     4NID4     5NID5     6NID6     7NID7     8NID8
      6449      6450      6451      6452      6453      6454      6455      6456
      6459      6460      6461      6462      6463      6464      6457      6458
      6465      6466      6467      6468      6469      6470      6471      6472
      6473      6474      6475      6476      6477      6478      6479      6504
      6529      6722      6723      6724      6725      6726      6727      6728
      6729      6922      6923      6924      6925      6926      6927      6928
      6929      6930      6931      6932      6933      6934      6935      6936
      6937      6938      6939      6940      6941      6942      6943      6944
      6945      6946      6947      6948      6949      6950      6951      6952
      6953      6954      6955      6956      6957      6958      6959      6960
      6961      6962      6963      6964      6965      6966      6967      6968
      6969      6970      6971      6972      6973      6974      6975      6976
      6981      6982      6983      6984      6977      6978      6979      6980
      6985      6986      6987      6988      6989      6990      6991      6992
      6993      6994      6995      6996      6997      6998      6999      7000
      7001      7002      7003      7004      7005      7006      7007      7008
      7009      7010      7011      7012      7013      7014      7015      7016
      7017      7018      7019      7020      7021      7022      7023      7024
      7025      7026      7027      7028      7029      7030      7031      7032
      7033      7034      7035      7036      7037      7038      7039      7040
$ ... 18 like lines cut
$
$
$$$$$$$$$$$$$$$$$$$$$$$$$$$$$$$$$$$$$$$$$$$$$$$$$$$$$$$$$$$$$$$$$$$$$$$$$$$$$$$$
$                             BOUNDARY CONDITIONS                              $
$$$$$$$$$$$$$$$$$$$$$$$$$$$$$$$$$$$$$$$$$$$$$$$$$$$$$$$$$$$$$$$$$$$$$$$$$$$$$$$$
$
*BOUNDARY_PRESCRIBED_MOTION_SET_ID
$   1KeyID  2HEADING
         1Velocity
$      1ID      2DOF      3VAD     4LCID       5SF      6VID    7DEATH    8BIRTH
         1         1         0         2     1.000         0         0         0
*BOUNDARY_PRESCRIBED_MOTION_SET_ID
$   1KeyID  2HEADING
         2Velocity
$      1ID      2DOF      3VAD     4LCID       5SF      6VID    7DEATH    8BIRTH
         1         2         0         3     1.000         0         0         0
*BOUNDARY_PRESCRIBED_MOTION_SET_ID
$   1KeyID  2HEADING
         3Velocity
$      1ID      2DOF      3VAD     4LCID       5SF      6VID    7DEATH    8BIRTH
         1         3         0         4     1.000         0         0         0
*BOUNDARY_PRESCRIBED_MOTION_SET_ID
$   1KeyID  2HEADING
         1Velocity 2
$      1ID      2DOF      3VAD     4LCID       5SF      6VID    7DEATH    8BIRTH
         2         1         0         5     1.000         0         0         0
*BOUNDARY_PRESCRIBED_MOTION_SET_ID
$   1KeyID  2HEADING
         2Velocity 2
$      1ID      2DOF      3VAD     4LCID       5SF      6VID    7DEATH    8BIRTH
         2         2         0         6     1.000         0         0         0
*BOUNDARY_PRESCRIBED_MOTION_SET_ID
$   1KeyID  2HEADING
         3Velocity 2
$      1ID      2DOF      3VAD     4LCID       5SF      6VID    7DEATH    8BIRTH
         2         3         0         7     1.000         0         0         0
*BOUNDARY_PRESCRIBED_MOTION_SET_ID
$   1KeyID  2HEADING
         1Velocity 3
$      1ID      2DOF      3VAD     4LCID       5SF      6VID    7DEATH    8BIRTH
         3         1         0         8     1.000         0         0         0
*BOUNDARY_PRESCRIBED_MOTION_SET_ID
$   1KeyID  2HEADING
         2Velocity 3
$      1ID      2DOF      3VAD     4LCID       5SF      6VID    7DEATH    8BIRTH
         3         2         0         9     1.000         0         0         0
*BOUNDARY_PRESCRIBED_MOTION_SET_ID
$   1KeyID  2HEADING
         3Velocity 3
$      1ID      2DOF      3VAD     4LCID       5SF      6VID    7DEATH    8BIRTH
         3         3         0        10     1.000         0         0         0
*END
